11
menc-chcl3-2-opt.log	Energy: -971947.9872397
 N      -0.000000       0.000000       0.252690
 C       0.000000       0.000000       1.400580
 C       0.000000       0.000000      -1.172300
 H       0.000000       1.019960      -1.531320
 H      -0.883310      -0.509980      -1.531330
 H       0.883310      -0.509980      -1.531320
 H       0.000000       0.001454       3.974002
 C       0.000000       0.001851       5.045572
Cl      -0.000026       1.683516       5.587430
Cl      -1.456192      -0.838688       5.588369
Cl       1.456198      -0.838660       5.588379

